Material: schott / inquiry / BAFN6
Optical constants. 1) SCHOTT optical glass data sheets - inqiury glass 2012-05-032) SCHOTT Zemax catalog 2012-12-04
Comments: Inquiry glass. Refractive index is relative to air at standard conditions; Wavelength in dispersion formula is as measured in air and expressed in micrometers.
Dispersion formula 2, range 0.35 2.5 um, coefficients 0 1.36719201 0.008828207 0.10907994 0.0438731646 1.02108011 113.58602
wavelength (um)	k
0.350	2.3622E-06
0.365	6.7365E-07
0.370	4.7166E-07
0.380	2.5488E-07
0.390	1.4467E-07
0.400	9.2400E-08
0.405	7.9767E-08
0.420	6.2957E-08
0.436	5.2324E-08
0.460	3.7071E-08
0.500	2.2439E-08
0.546	1.5713E-08
0.580	1.1111E-08
0.620	1.1877E-08
0.660	1.0531E-08
0.700	6.6946E-09
1.060	1.6913E-08
1.530	2.4412E-08
1.970	3.8800E-07
2.325	1.8388E-06
