Material: mixed crystals / AlGaAs / Aspnes-9.9
Optical constants. D. E. Aspnes, S. M. Kelso, R. A. Logan and R. Bhat. Optical properties of AlxGa1-xAs, J. Appl. Phys. 60, 754-767 (1986)
Comments: AlxGa1-xAs; x = 0.099
wavelength (um)	n	k
0.2066	1.311	2.457
0.2101	1.318	2.538
0.2138	1.330	2.608
0.2175	1.345	2.698
0.2214	1.371	2.800
0.2254	1.408	2.921
0.2296	1.459	3.059
0.2339	1.531	3.223
0.2384	1.634	3.433
0.2431	1.819	3.704
0.2480	2.207	3.983
0.2530	2.772	4.036
0.2583	3.267	3.846
0.2638	3.611	3.536
0.2695	3.829	3.229
0.2755	4.010	2.876
0.2818	4.017	2.507
0.2883	3.922	2.240
0.2952	3.801	2.074
0.3024	3.697	1.983
0.3100	3.618	1.937
0.3179	3.566	1.920
0.3263	3.537	1.924
0.3351	3.532	1.945
0.3444	3.552	1.979
0.3542	3.601	2.030
0.3647	3.690	2.100
0.3757	3.864	2.203
0.3875	4.253	2.187
0.3999	4.460	1.949
0.4133	4.838	1.836
0.4275	4.968	1.126
0.4428	4.725	0.763
0.4592	4.518	0.575
0.4769	4.353	0.462
0.4959	4.220	0.382
0.5166	4.111	0.320
0.5391	4.018	0.276
0.5636	3.940	0.237
0.5904	3.876	0.199
0.6199	3.820	0.171
0.6525	3.775	0.127
0.6888	3.716	0.099
0.7293	3.678	0.082
0.7749	3.661	0.059
0.8266	3.572	0.000
