Material: mixed crystals / AlGaAs / Aspnes-49.1
Optical constants. D. E. Aspnes, S. M. Kelso, R. A. Logan and R. Bhat. Optical properties of AlxGa1-xAs, J. Appl. Phys. 60, 754-767 (1986)
Comments: AlxGa1-xAs; x = 0.491
wavelength (um)	n	k
0.2066	1.366	2.418
0.2101	1.363	2.490
0.2138	1.364	2.572
0.2175	1.379	2.666
0.2214	1.412	2.780
0.2254	1.462	2.903
0.2296	1.532	3.045
0.2339	1.632	3.199
0.2384	1.763	3.378
0.2431	1.951	3.579
0.2480	2.250	3.787
0.2530	2.686	3.904
0.2583	3.187	3.899
0.2638	3.731	3.645
0.2695	4.072	3.147
0.2755	4.107	2.668
0.2818	4.009	2.351
0.2883	3.894	2.159
0.2952	3.798	2.046
0.3024	3.730	1.980
0.3100	3.688	1.945
0.3179	3.671	1.933
0.3263	3.680	1.942
0.3351	3.724	1.969
0.3444	3.822	2.017
0.3542	4.034	2.049
0.3647	4.294	1.922
0.3757	4.525	1.748
0.3875	4.753	1.340
0.3999	4.654	0.926
0.4133	4.483	0.684
0.4275	4.328	0.534
0.4428	4.195	0.429
0.4592	4.081	0.355
0.4769	3.985	0.292
0.4959	3.903	0.245
0.5166	3.838	0.205
0.5391	3.761	0.164
0.5636	3.696	0.133
0.5904	3.665	0.088
0.6199	3.558	0.002
0.6525	3.477	0.000
0.6888	3.417	0.000
0.7293	3.368	0.000
0.7749	3.329	0.000
0.8266	3.283	0.000
