Material: organic / CH4 - methane / Loria
Optical constants. S. Loria Über die Dispersion des Lichtes in gasförmigen Kohlenwasserstoffen. Annalen der Physik 334, 605-622 (1909) (in German). As cited in International Critical Tables of Numerical Data, Physics and Chemistry and Technology, Vol. VII, E. W. Washburn, Ed., McGraw-Hill, New York, 1930 [link]
Comments: 0 °C
wavelength (um)	n
0.5290	1.0004478
0.5718	1.0004454
0.5935	1.0004435
0.6375	1.0004411
0.6585	1.0004404
