Material: schott / obsolete / LITHOSIL-Q
Optical constants. 1) SCHOTT optical glass data sheets 2008-02-262) SCHOTT Zemax catalog 2012-12-04
Comments: Obsolete. Refractive index is relative to air at standard conditions; Wavelength in dispersion formula is as measured in air and expressed in micrometers.
Dispersion formula 2, range 0.25 2.325 um, coefficients 0 0.67071081 0.00449192312 0.433322857 0.0132812976 0.877379057 95.8899878
wavelength (um)	k
0.250	7.9617E-10
0.260	8.2802E-10
0.270	8.5987E-10
0.280	8.9171E-10
0.290	9.2356E-10
0.300	9.5541E-10
0.310	9.8725E-10
0.320	1.0191E-09
0.334	1.0637E-09
0.350	1.1146E-09
0.365	1.1624E-09
0.370	1.1783E-09
0.380	1.2102E-09
0.390	1.2420E-09
0.400	1.2739E-09
0.405	1.2898E-09
0.420	1.3376E-09
0.436	1.3885E-09
0.460	1.4650E-09
0.500	1.5923E-09
0.546	1.7388E-09
0.580	1.8471E-09
0.620	1.9745E-09
0.660	2.1019E-09
0.700	2.2293E-09
1.060	1.8866E-09
1.530	2.7232E-09
1.970	8.8506E-08
2.325	1.6816E-06
