Material: mixed crystals / AlGaSb / Ferrini-0
Optical constants. R. Ferrini, M. Patrini, and S. Franchi. Optical functions from 0.02 to 6 eV of AlxGa1−xSb/GaSb epitaxial layers, J. Appl Phys. 84, 4517-4524 (1998)
Comments: AlxGa1−xSb, x = 0 (GaAs). Thin film grown by molecular beam epitaxy on a GaSb substrate.
wavelength (um)	n	k
0.207	0.956	2.450
0.210	1.010	2.475
0.214	1.046	2.510
0.218	1.084	2.560
0.221	1.144	2.619
0.225	1.228	2.659
0.230	1.309	2.663
0.234	1.354	2.648
0.238	1.363	2.651
0.243	1.361	2.688
0.248	1.368	2.749
0.253	1.382	2.825
0.258	1.400	2.921
0.264	1.432	3.043
0.270	1.483	3.190
0.276	1.561	3.369
0.282	1.689	3.604
0.288	1.944	3.872
0.295	2.415	4.078
0.302	2.956	3.992
0.310	3.323	3.708
0.318	3.528	3.415
0.326	3.642	3.163
0.335	3.713	2.964
0.344	3.759	2.778
0.354	3.783	2.623
0.365	3.804	2.500
0.376	3.823	2.378
0.387	3.825	2.253
0.400	3.785	2.160
0.413	3.751	2.119
0.428	3.740	2.116
0.443	3.755	2.148
0.459	3.816	2.190
0.477	3.946	2.268
0.496	4.235	2.289
0.517	4.464	2.000
0.539	4.455	1.812
0.564	4.470	1.770
0.590	4.630	1.843
0.620	5.197	1.465
0.653	5.037	0.881
0.689	4.822	0.647
0.729	4.644	0.514
0.775	4.500	0.407
0.827	4.370	0.338
0.886	4.270	0.299
0.954	4.200	0.268
1.033	4.140	0.225
1.127	4.096	0.201
1.240	4.050	0.173
1.378	4.026	0.145
1.550	4.010	0.125
1.771	3.959	0.023
2.066	3.878	0.000
2.480	3.846	0.000
