Material: mixed crystals / AlGaAs / Aspnes-41.9
Optical constants. D. E. Aspnes, S. M. Kelso, R. A. Logan and R. Bhat. Optical properties of AlxGa1-xAs, J. Appl. Phys. 60, 754-767 (1986)
Comments: AlxGa1-xAs; x = 0.419
wavelength (um)	n	k
0.2066	1.353	2.440
0.2101	1.350	2.507
0.2138	1.357	2.574
0.2175	1.377	2.675
0.2214	1.406	2.783
0.2254	1.456	2.908
0.2296	1.523	3.047
0.2339	1.613	3.201
0.2384	1.740	3.384
0.2431	1.926	3.598
0.2480	2.234	3.822
0.2530	2.695	3.937
0.2583	3.200	3.909
0.2638	3.733	3.646
0.2695	4.054	3.157
0.2755	4.103	2.691
0.2818	4.014	2.363
0.2883	3.897	2.161
0.2952	3.794	2.040
0.3024	3.719	1.971
0.3100	3.667	1.936
0.3179	3.640	1.924
0.3263	3.640	1.931
0.3351	3.668	1.958
0.3444	3.736	2.005
0.3542	3.887	2.071
0.3647	4.172	2.042
0.3757	4.401	1.870
0.3875	4.706	1.640
0.3999	4.778	1.119
0.4133	4.605	0.786
0.4275	4.430	0.596
0.4428	4.280	0.472
0.4592	4.154	0.385
0.4769	4.047	0.319
0.4959	3.957	0.268
0.5166	3.881	0.219
0.5391	3.820	0.178
0.5636	3.747	0.134
0.5904	3.686	0.100
0.6199	3.664	0.059
0.6525	3.559	0.003
0.6888	3.479	0.000
0.7293	3.422	0.000
0.7749	3.378	0.000
0.8266	3.341	0.000
