Material: schott / obsolete / N-LAF32
Optical constants. SCHOTT Zemax catalog 2012-12-04
Comments: Obsolete. Refractive index is relative to air at standard conditions; Wavelength in dispersion formula is as measured in air and expressed in micrometers.
Dispersion formula 2, range 0.25 2.5 um, coefficients 0 1.91731106 0.0097860036 0.224019825 0.0386141473 1.22087075 84.6431265
wavelength (um)	k
0.250	2.8139E-06
0.365	1.1552E-06
0.370	8.6443E-07
0.380	4.8441E-07
0.390	2.9263E-07
0.400	1.9203E-07
0.405	1.6480E-07
0.420	1.0278E-07
0.436	7.2648E-08
0.460	4.6109E-08
0.500	1.9214E-08
0.546	1.0459E-08
0.580	1.2969E-08
0.620	1.3863E-08
0.660	1.2643E-08
0.700	1.1169E-08
1.060	2.3702E-08
1.530	1.6847E-07
1.970	9.4577E-07
2.325	6.0758E-06
2.500	1.6873E-05
