Material: schott / obsolete / N-LASF46
Optical constants. SCHOTT Zemax catalog 2012-12-04
Comments: Obsolete. Replaced by N-LASF46A. Refractive index is relative to air at standard conditions; Wavelength in dispersion formula is as measured in air and expressed in micrometers.
Dispersion formula 2, range 0.38 2.5 um, coefficients 0 2.18073678 0.0125642118 0.298978656 0.056469999 1.62190046 105.662819
wavelength (um)	k
0.380	5.5703E-06
0.390	3.7189E-06
0.400	2.5033E-06
0.405	2.0748E-06
0.420	1.2588E-06
0.436	8.2970E-07
0.460	5.0148E-07
0.500	2.4004E-07
0.546	1.0016E-07
0.580	6.1952E-08
0.620	4.1885E-08
0.660	2.9620E-08
0.700	1.7897E-08
1.060	1.6913E-08
1.530	9.3423E-08
1.970	5.9139E-07
2.325	3.7805E-06
2.500	1.1032E-05
